<?xml version="1.0" encoding="UTF-8"?>

<!-- generated on 2022-04-07 11:43:50 by Eclipse SUMO netedit Version 1.12.0
<configuration xmlns:xsi="http://www.w3.org/2001/XMLSchema-instance" xsi:noNamespaceSchemaLocation="http://sumo.dlr.de/xsd/netconvertConfiguration.xsd">

    <input>
        <sumo-net-file value="D:\Repos\v2\helloWorld.net.xml"/>
    </input>

    <output>
        <output-file value="D:\Repos\v2\helloWorld.net.xml"/>
    </output>

    <processing>
        <geometry.min-radius.fix.railways value="false"/>
        <geometry.max-grade.fix value="false"/>
        <offset.disable-normalization value="true"/>
        <lefthand value="false"/>
    </processing>

    <junctions>
        <no-turnarounds value="true"/>
        <junctions.corner-detail value="5"/>
        <junctions.limit-turn-speed value="5.5"/>
        <rectangular-lane-cut value="false"/>
    </junctions>

    <pedestrian>
        <walkingareas value="false"/>
    </pedestrian>

    <netedit>
        <route-files value="D:\Repos\v2\helloWorld.rou.xml"/>
    </netedit>

    <report>
        <aggregate-warnings value="5"/>
    </report>

</configuration>
-->

<net version="1.9" junctionCornerDetail="5" limitTurnSpeed="5.50" xmlns:xsi="http://www.w3.org/2001/XMLSchema-instance" xsi:noNamespaceSchemaLocation="http://sumo.dlr.de/xsd/net_file.xsd">

    <location netOffset="0.00,0.00" convBoundary="-100.00,50.00,100.00,50.00" origBoundary="-10000000000.00,-10000000000.00,10000000000.00,10000000000.00" projParameter="!"/>

    <edge id=":J12_0" function="internal">
        <lane id=":J12_0_0" index="0" speed="13.89" length="0.10" shape="0.00,48.40 0.00,48.40"/>
    </edge>

    <edge id="E7" from="J11" to="J12" priority="-1">
        <lane id="E7_0" index="0" speed="13.89" length="100.00" shape="-100.00,48.40 0.00,48.40"/>
    </edge>
    <edge id="E8" from="J12" to="J13" priority="-1">
        <lane id="E8_0" index="0" speed="13.89" length="100.00" shape="0.00,48.40 100.00,48.40"/>
    </edge>

    <junction id="J11" type="dead_end" x="-100.00" y="50.00" incLanes="" intLanes="" shape="-100.00,50.00 -100.00,46.80"/>
    <junction id="J12" type="priority" x="0.00" y="50.00" incLanes="E7_0" intLanes=":J12_0_0" shape="0.00,50.00 0.00,46.80 0.00,50.00">
        <request index="0" response="0" foes="0" cont="0"/>
    </junction>
    <junction id="J13" type="dead_end" x="100.00" y="50.00" incLanes="E8_0" intLanes="" shape="100.00,46.80 100.00,50.00"/>

    <connection from="E7" to="E8" fromLane="0" toLane="0" via=":J12_0_0" dir="s" state="M"/>

    <connection from=":J12_0" to="E8" fromLane="0" toLane="0" dir="s" state="M"/>

</net>
